  Page 1                                             03-09-2025 20:20:50
  **********************************************************************
  *                             E P A N E T                            *
  *                     Hydraulic and Water Quality                    *
  *                     Analysis for Pipe Networks                     *
  *                           Version 2.2                              *
  **********************************************************************
  
  Input File: epanetfile.net
  
  
  
  Link - Node Table:
  ----------------------------------------------------------------------
  Link           Start          End                Length  Diameter
  ID             Node           Node                    m        mm
  ----------------------------------------------------------------------
  5              4              5                       3       100
  9              4              6                     2.4       100
  10             5              6                     2.9       100
  12             5              7                       3       100
  13             7              6                     1.1       100
  17             10             4                    0.98       100
  18             10             7                    1.65       100
  19             10             5                    2.65       100
  
  Node Results:
  ----------------------------------------------------------------------
  Node                Demand      Head  Pressure   Quality
  ID                     LPS         m         m          
  ----------------------------------------------------------------------
  4                     0.00   1046.27   1046.27      0.00
  5                     0.00    896.10    896.10      0.00
  6                     3.00    473.55    473.55      0.00
  7                     2.00    583.24    583.24      0.00
  10                   -5.00   1500.00      0.00      0.00 Reservoir
  
  Link Results:
  ----------------------------------------------------------------------
  Link                  Flow  VelocityUnit Headloss    Status
  ID                     LPS       m/s      m/km
  ----------------------------------------------------------------------
  5                     0.54      0.07  50055.88      Open
  9                     1.26      0.16 238631.40      Open
  10                    0.96      0.12 145706.10      Open
  12                    0.80      0.10 104288.10      Open
  13                    0.78      0.10  99712.04      Open
  17                    1.80      0.23 462992.80      Open
  18                    1.98      0.25 555615.10      Open
  19                    1.22      0.16 227887.00      Open
  
